# opt freq hf/6-311++g(d,p) geom=connectivity

Title Card Required

0 1
 O                 -1.57606500    0.02063200   -0.11011500
 H                 -1.90201700   -0.14760800    0.75591700
 H                 -0.63326100    0.00590000   -0.04304800
 O                  1.42021700   -0.01244000    0.07777600
 H                  1.90411500   -0.70982000   -0.33073600
 H                  1.87794500    0.78599300   -0.12342800

 1 2 1.0 3 1.0
 2
 3
 4 5 1.0 6 1.0
 5
 6

