# opt pm6 geom=connectivity

Title Card Required

0 1
 O                 -1.12875500    0.00047000   -0.07796600
 H                 -2.06673700    0.00531100    0.05845900
 H                 -0.69987600   -0.01578000    0.78645400
 O                  1.23546400   -0.00103800    0.08008900
 H                  0.95641800   -0.75691000   -0.44372400
 H                  0.95651800    0.77192700   -0.41817500

 1 2 1.0 3 1.0
 2
 3
 4 5 1.0 6 1.0
 5
 6

