%chk=N:\Exercise_6_H2O\H2O.chk
# opt uff geom=connectivity

Title Card Required

0 1
 O-O_3--0.834000   -6.40860191    2.39784943    0.00000000
 H-H_-0.417000     -5.44860191    2.39784943    0.00000000
 H-H_-0.417000     -6.72905649    3.30278526    0.00000000
 O-O_3--0.834000   -5.54838689   -0.76344085    0.00000000
 H-H_-0.417000     -4.58838689   -0.76344085    0.00000000
 H-H_-0.417000     -5.86884147    0.14149498    0.00000000
 O-O_3--0.834000   -0.30107526    2.09677416    0.00000000
 H-H_-0.417000      0.65892474    2.09677416    0.00000000
 H-H_-0.417000     -0.62152984    3.00170999    0.00000000
 O-O_3--0.834000   -3.13978483    3.73118274    0.00000000
 H-H_-0.417000     -2.17978483    3.73118274    0.00000000
 H-H_-0.417000     -3.46023941    4.63611857    0.00000000
 O-O_3--0.834000   -1.29032253   -2.52688168    0.00000000
 H-H_-0.417000     -0.33032253   -2.52688168    0.00000000
 H-H_-0.417000     -1.61077712   -1.62194585    0.00000000
 O-O_3--0.834000   -0.27956988   -0.91397848    0.00000000
 H-H_-0.417000      0.68043012   -0.91397848    0.00000000
 H-H_-0.417000     -0.60002447   -0.00904265    0.00000000
 O-O_3--0.834000    1.63440854    1.19354837    0.00000000
 H-H_-0.417000      2.59440854    1.19354837    0.00000000
 H-H_-0.417000      1.31395395    2.09848420    0.00000000
 O-O_3--0.834000   -3.09677408    1.17204299    0.00000000
 H-H_-0.417000     -2.13677408    1.17204299    0.00000000
 H-H_-0.417000     -3.41722866    2.07697882    0.00000000

 1 2 1.0 3 1.0
 2
 3
 4 5 1.0 6 1.0
 5
 6
 7 8 1.0 9 1.0
 8
 9
 10 11 1.0 12 1.0
 11
 12
 13 14 1.0 15 1.0
 14
 15
 16 17 1.0 18 1.0
 17
 18
 19 20 1.0 21 1.0
 20
 21
 22 23 1.0 24 1.0
 23
 24

