%chk=N:\ch4.chk
# hf/3-21g geom=connectivity

Title Card Required

0 1
 C                 -1.64086686    0.94427243    0.00000000
 H                 -1.28421243   -0.06453757    0.00000000
 H                 -1.28419402    1.44867062    0.87365150
 H                 -1.28419402    1.44867062   -0.87365150
 H                 -2.71086686    0.94428562    0.00000000

 1 2 1.0 3 1.0 4 1.0 5 1.0
 2
 3
 4
 5

